Initialize SIGNATURE TABLE
ST_SET: 1
ST_WAY: 256
ST_TAG_BIT: 16
ST_TAG_MASK: ffff

Initialize PATTERN TABLE
PT_SET: 512
PT_WAY: 4
SIG_DELTA_BIT: 7
C_SIG_BIT: 4
C_DELTA_BIT: 4

Initialize PREFETCH FILTER
FILTER_SET: 1024

*** ChampSim Multicore Out-of-Order Simulator ***

Warmup Instructions: 1000000
Simulation Instructions: 10000000
Number of CPUs: 1
LLC sets: 2048
LLC ways: 16
Off-chip DRAM Size: 4096 MB Channels: 1 Width: 64-bit Data Rate: 3200 MT/s

CPU 0 runs /mnt/c/Erika/College/Grad/CSE240C/HW1/ChampSim/ipc1_public/server_010.champsimtrace.xz
CPU 0 EPI prefetcher
CPU 0 L1D next line prefetcher

Warmup complete CPU 0 instructions: 1000004 cycles: 320937 (Simulation time: 0 hr 0 min 4 sec) 

Heartbeat CPU 0 instructions: 10000000 cycles: 7170432 heartbeat IPC: 1.39462 cumulative IPC: 1.31396 (Simulation time: 0 hr 0 min 52 sec) 
Finished CPU 0 instructions: 10000002 cycles: 7538806 cumulative IPC: 1.32647 (Simulation time: 0 hr 0 min 57 sec) 

ChampSim completed all CPUs

Region of Interest Statistics

CPU 0 cumulative IPC: 1.32647 instructions: 10000002 cycles: 7538806
L1D TOTAL     ACCESS:    3504253  HIT:    3292274  MISS:     211979
L1D LOAD      ACCESS:    1281601  HIT:    1182843  MISS:      98758
L1D RFO       ACCESS:     988652  HIT:     971972  MISS:      16680
L1D PREFETCH  ACCESS:    1234000  HIT:    1137459  MISS:      96541
L1D WRITEBACK ACCESS:          0  HIT:          0  MISS:          0
L1D PREFETCH  REQUESTED:    1288998  ISSUED:    1269824  USEFUL:      27268  USELESS:      69264
L1D AVERAGE MISS LATENCY: 40.2679 cycles
L1I TOTAL     ACCESS:    5770683  HIT:    5401970  MISS:     368713
L1I LOAD      ACCESS:    1732708  HIT:    1711342  MISS:      21366
L1I RFO       ACCESS:          0  HIT:          0  MISS:          0
L1I PREFETCH  ACCESS:    4037975  HIT:    3690628  MISS:     347347
L1I WRITEBACK ACCESS:          0  HIT:          0  MISS:          0
L1I PREFETCH  REQUESTED:    4959473  ISSUED:    4959473  USEFUL:     255729  USELESS:      91712
L1I AVERAGE MISS LATENCY: 31.4443 cycles
L2C TOTAL     ACCESS:     739676  HIT:     480709  MISS:     258967
L2C LOAD      ACCESS:     104982  HIT:      49743  MISS:      55239
L2C RFO       ACCESS:      16443  HIT:       6222  MISS:      10221
L2C PREFETCH  ACCESS:     562710  HIT:     369437  MISS:     193273
L2C WRITEBACK ACCESS:      55541  HIT:      55307  MISS:        234
L2C PREFETCH  REQUESTED:     696683  ISSUED:     695363  USEFUL:       6139  USELESS:     184914
L2C AVERAGE MISS LATENCY: 45.0066 cycles
LLC TOTAL     ACCESS:     489645  HIT:     460599  MISS:      29046
LLC LOAD      ACCESS:      55111  HIT:      50694  MISS:       4417
LLC RFO       ACCESS:      10220  HIT:       8037  MISS:       2183
LLC PREFETCH  ACCESS:     389882  HIT:     367492  MISS:      22390
LLC WRITEBACK ACCESS:      34432  HIT:      34376  MISS:         56
LLC PREFETCH  REQUESTED:          0  ISSUED:          0  USEFUL:       3017  USELESS:      13706
LLC AVERAGE MISS LATENCY: 162.27 cycles
Major fault: 0 Minor fault: 3113
CPU 0 L1I EPI prefetcher final stats
CPU 0 L1D next line prefetcher final stats

DRAM Statistics
 CHANNEL 0
 RQ ROW_BUFFER_HIT:       7309  ROW_BUFFER_MISS:      21680
 DBUS_CONGESTED:      10704
 WQ ROW_BUFFER_HIT:       1292  ROW_BUFFER_MISS:       5716  FULL:          0

 AVG_CONGESTED_CYCLE: 5

CPU 0 Branch Prediction Accuracy: 98.207% MPKI: 3.3245 Average ROB Occupancy at Mispredict: 83.3133

Branch types
NOT_BRANCH: 8145836 81.4583%
BRANCH_DIRECT_JUMP: 90550 0.9055%
BRANCH_INDIRECT: 30701 0.30701%
BRANCH_CONDITIONAL: 1392308 13.9231%
BRANCH_DIRECT_CALL: 133028 1.33028%
BRANCH_INDIRECT_CALL: 33884 0.33884%
BRANCH_RETURN: 173658 1.73658%
BRANCH_OTHER: 0 0%

