Initialize SIGNATURE TABLE
ST_SET: 1
ST_WAY: 256
ST_TAG_BIT: 16
ST_TAG_MASK: ffff

Initialize PATTERN TABLE
PT_SET: 512
PT_WAY: 4
SIG_DELTA_BIT: 7
C_SIG_BIT: 4
C_DELTA_BIT: 4

Initialize PREFETCH FILTER
FILTER_SET: 1024

*** ChampSim Multicore Out-of-Order Simulator ***

Warmup Instructions: 50000000
Simulation Instructions: 50000000
Number of CPUs: 1
LLC sets: 2048
LLC ways: 16
Off-chip DRAM Size: 4096 MB Channels: 1 Width: 64-bit Data Rate: 3200 MT/s

CPU 0 runs /mnt/c/Erika/College/Grad/CSE240C/HW1/ChampSim/ipc1_public/spec_gobmk_001.champsimtrace.xz
L1I D-JOLT instruction prefetcher has been constructed!
CPU 0 L1D next line prefetcher
Heartbeat CPU 0 instructions: 10000003 cycles: 3506823 heartbeat IPC: 2.85158 cumulative IPC: 2.85158 (Simulation time: 0 hr 0 min 34 sec) 
Heartbeat CPU 0 instructions: 20000002 cycles: 6987028 heartbeat IPC: 2.87339 cumulative IPC: 2.86245 (Simulation time: 0 hr 1 min 8 sec) 
Heartbeat CPU 0 instructions: 30000002 cycles: 10505781 heartbeat IPC: 2.84192 cumulative IPC: 2.85557 (Simulation time: 0 hr 1 min 41 sec) 
Heartbeat CPU 0 instructions: 40000001 cycles: 14024948 heartbeat IPC: 2.84158 cumulative IPC: 2.85206 (Simulation time: 0 hr 2 min 14 sec) 
Heartbeat CPU 0 instructions: 50000001 cycles: 17565075 heartbeat IPC: 2.82476 cumulative IPC: 2.84656 (Simulation time: 0 hr 2 min 48 sec) 

Warmup complete CPU 0 instructions: 50000001 cycles: 17565075 (Simulation time: 0 hr 2 min 48 sec) 

Heartbeat CPU 0 instructions: 60000000 cycles: 26319987 heartbeat IPC: 1.14222 cumulative IPC: 1.14222 (Simulation time: 0 hr 3 min 18 sec) 
Heartbeat CPU 0 instructions: 70000002 cycles: 34702034 heartbeat IPC: 1.19303 cumulative IPC: 1.16707 (Simulation time: 0 hr 3 min 48 sec) 
Heartbeat CPU 0 instructions: 80000003 cycles: 43527816 heartbeat IPC: 1.13304 cumulative IPC: 1.1555 (Simulation time: 0 hr 4 min 18 sec) 
Heartbeat CPU 0 instructions: 90000001 cycles: 52013183 heartbeat IPC: 1.1785 cumulative IPC: 1.16117 (Simulation time: 0 hr 4 min 47 sec) 
Heartbeat CPU 0 instructions: 100000003 cycles: 60816856 heartbeat IPC: 1.13589 cumulative IPC: 1.15602 (Simulation time: 0 hr 5 min 16 sec) 
Finished CPU 0 instructions: 50000002 cycles: 43251781 cumulative IPC: 1.15602 (Simulation time: 0 hr 5 min 16 sec) 

ChampSim completed all CPUs

Region of Interest Statistics

CPU 0 cumulative IPC: 1.15602 instructions: 50000002 cycles: 43251781
L1D TOTAL     ACCESS:   17977904  HIT:   17598415  MISS:     379489
L1D LOAD      ACCESS:    7208029  HIT:    7072770  MISS:     135259
L1D RFO       ACCESS:    3700935  HIT:    3596379  MISS:     104556
L1D PREFETCH  ACCESS:    7068940  HIT:    6929266  MISS:     139674
L1D WRITEBACK ACCESS:          0  HIT:          0  MISS:          0
L1D PREFETCH  REQUESTED:    7213420  ISSUED:    7130674  USEFUL:      45009  USELESS:      94671
L1D AVERAGE MISS LATENCY: 33.8988 cycles
L1I TOTAL     ACCESS:   14538936  HIT:   12818333  MISS:    1720603
L1I LOAD      ACCESS:    8976758  HIT:    8935714  MISS:      41044
L1I RFO       ACCESS:          0  HIT:          0  MISS:          0
L1I PREFETCH  ACCESS:    5562178  HIT:    3882619  MISS:    1679559
L1I WRITEBACK ACCESS:          0  HIT:          0  MISS:          0
L1I PREFETCH  REQUESTED:    5846154  ISSUED:    5621655  USEFUL:     831199  USELESS:     848301
L1I AVERAGE MISS LATENCY: 15.1952 cycles
L2C TOTAL     ACCESS:    3007874  HIT:    2880069  MISS:     127805
L2C LOAD      ACCESS:     149077  HIT:     113622  MISS:      35455
L2C RFO       ACCESS:     104201  HIT:      69736  MISS:      34465
L2C PREFETCH  ACCESS:    2615299  HIT:    2557513  MISS:      57786
L2C WRITEBACK ACCESS:     139297  HIT:     139198  MISS:         99
L2C PREFETCH  REQUESTED:    1330058  ISSUED:    1329935  USEFUL:       5192  USELESS:      52925
L2C AVERAGE MISS LATENCY: 64.3137 cycles
LLC TOTAL     ACCESS:     280742  HIT:     247319  MISS:      33423
LLC LOAD      ACCESS:      35450  HIT:      27282  MISS:       8168
LLC RFO       ACCESS:      34465  HIT:      28010  MISS:       6455
LLC PREFETCH  ACCESS:     165288  HIT:     146720  MISS:      18568
LLC WRITEBACK ACCESS:      45539  HIT:      45307  MISS:        232
LLC PREFETCH  REQUESTED:          0  ISSUED:          0  USEFUL:       1305  USELESS:      16294
LLC AVERAGE MISS LATENCY: 180.541 cycles
Major fault: 0 Minor fault: 4160
CPU 0 L1D next line prefetcher final stats

DRAM Statistics
 CHANNEL 0
 RQ ROW_BUFFER_HIT:       4377  ROW_BUFFER_MISS:      28811
 DBUS_CONGESTED:      17375
 WQ ROW_BUFFER_HIT:       1380  ROW_BUFFER_MISS:      14011  FULL:          0

 AVG_CONGESTED_CYCLE: 4

CPU 0 Branch Prediction Accuracy: 94.7729% MPKI: 9.72684 Average ROB Occupancy at Mispredict: 54.2952

Branch types
NOT_BRANCH: 40695385 81.3908%
BRANCH_DIRECT_JUMP: 422107 0.844214%
BRANCH_INDIRECT: 65 0.00013%
BRANCH_CONDITIONAL: 8105006 16.21%
BRANCH_DIRECT_CALL: 374913 0.749826%
BRANCH_INDIRECT_CALL: 13657 0.027314%
BRANCH_RETURN: 388556 0.777112%
BRANCH_OTHER: 0 0%

