Initialize SIGNATURE TABLE
ST_SET: 1
ST_WAY: 256
ST_TAG_BIT: 16
ST_TAG_MASK: ffff

Initialize PATTERN TABLE
PT_SET: 512
PT_WAY: 4
SIG_DELTA_BIT: 7
C_SIG_BIT: 4
C_DELTA_BIT: 4

Initialize PREFETCH FILTER
FILTER_SET: 1024

*** ChampSim Multicore Out-of-Order Simulator ***

Warmup Instructions: 50000000
Simulation Instructions: 50000000
Number of CPUs: 1
LLC sets: 2048
LLC ways: 16
Off-chip DRAM Size: 4096 MB Channels: 1 Width: 64-bit Data Rate: 3200 MT/s

CPU 0 runs /mnt/c/Erika/College/Grad/CSE240C/HW1/ChampSim/ipc1_public/spec_gobmk_002.champsimtrace.xz
L1I D-JOLT instruction prefetcher has been constructed!
CPU 0 L1D next line prefetcher
Heartbeat CPU 0 instructions: 10000001 cycles: 3287445 heartbeat IPC: 3.04188 cumulative IPC: 3.04188 (Simulation time: 0 hr 0 min 32 sec) 
Heartbeat CPU 0 instructions: 20000000 cycles: 6618993 heartbeat IPC: 3.00161 cumulative IPC: 3.02161 (Simulation time: 0 hr 1 min 3 sec) 
Heartbeat CPU 0 instructions: 30000000 cycles: 9956903 heartbeat IPC: 2.99589 cumulative IPC: 3.01298 (Simulation time: 0 hr 1 min 35 sec) 
Heartbeat CPU 0 instructions: 40000000 cycles: 13266300 heartbeat IPC: 3.0217 cumulative IPC: 3.01516 (Simulation time: 0 hr 2 min 8 sec) 
Heartbeat CPU 0 instructions: 50000003 cycles: 16529796 heartbeat IPC: 3.0642 cumulative IPC: 3.02484 (Simulation time: 0 hr 2 min 40 sec) 

Warmup complete CPU 0 instructions: 50000003 cycles: 16529796 (Simulation time: 0 hr 2 min 40 sec) 

Heartbeat CPU 0 instructions: 60000003 cycles: 23931732 heartbeat IPC: 1.351 cumulative IPC: 1.351 (Simulation time: 0 hr 3 min 8 sec) 
Heartbeat CPU 0 instructions: 70000000 cycles: 31271570 heartbeat IPC: 1.36243 cumulative IPC: 1.35669 (Simulation time: 0 hr 3 min 35 sec) 
Heartbeat CPU 0 instructions: 80000000 cycles: 38471462 heartbeat IPC: 1.38891 cumulative IPC: 1.36726 (Simulation time: 0 hr 4 min 2 sec) 
Heartbeat CPU 0 instructions: 90000003 cycles: 46006896 heartbeat IPC: 1.32706 cumulative IPC: 1.35699 (Simulation time: 0 hr 4 min 28 sec) 
Heartbeat CPU 0 instructions: 100000003 cycles: 53778086 heartbeat IPC: 1.2868 cumulative IPC: 1.34234 (Simulation time: 0 hr 4 min 53 sec) 
Finished CPU 0 instructions: 50000000 cycles: 37248290 cumulative IPC: 1.34234 (Simulation time: 0 hr 4 min 53 sec) 

ChampSim completed all CPUs

Region of Interest Statistics

CPU 0 cumulative IPC: 1.34234 instructions: 50000000 cycles: 37248290
L1D TOTAL     ACCESS:   17617199  HIT:   17494066  MISS:     123133
L1D LOAD      ACCESS:    6654170  HIT:    6619899  MISS:      34271
L1D RFO       ACCESS:    4388064  HIT:    4345375  MISS:      42689
L1D PREFETCH  ACCESS:    6574965  HIT:    6528792  MISS:      46173
L1D WRITEBACK ACCESS:          0  HIT:          0  MISS:          0
L1D PREFETCH  REQUESTED:    6656604  ISSUED:    6589314  USEFUL:      17104  USELESS:      29251
L1D AVERAGE MISS LATENCY: 51.0541 cycles
L1I TOTAL     ACCESS:   16015143  HIT:   13804722  MISS:    2210421
L1I LOAD      ACCESS:    8883036  HIT:    8812835  MISS:      70201
L1I RFO       ACCESS:          0  HIT:          0  MISS:          0
L1I PREFETCH  ACCESS:    7132107  HIT:    4991887  MISS:    2140220
L1I WRITEBACK ACCESS:          0  HIT:          0  MISS:          0
L1I PREFETCH  REQUESTED:    7503497  ISSUED:    7218865  USEFUL:    1077772  USELESS:    1062368
L1I AVERAGE MISS LATENCY: 14.5602 cycles
L2C TOTAL     ACCESS:    3283758  HIT:    3246652  MISS:      37106
L2C LOAD      ACCESS:     100200  HIT:      86210  MISS:      13990
L2C RFO       ACCESS:      42555  HIT:      39789  MISS:       2766
L2C PREFETCH  ACCESS:    3066795  HIT:    3046593  MISS:      20202
L2C WRITEBACK ACCESS:      74208  HIT:      74060  MISS:        148
L2C PREFETCH  REQUESTED:    1442964  ISSUED:    1442961  USEFUL:       2296  USELESS:      18309
L2C AVERAGE MISS LATENCY: 127.496 cycles
LLC TOTAL     ACCESS:     149589  HIT:     117917  MISS:      31672
LLC LOAD      ACCESS:      13990  HIT:       5167  MISS:       8823
LLC RFO       ACCESS:       2766  HIT:       1138  MISS:       1628
LLC PREFETCH  ACCESS:     114799  HIT:      94125  MISS:      20674
LLC WRITEBACK ACCESS:      18034  HIT:      17487  MISS:        547
LLC PREFETCH  REQUESTED:          0  ISSUED:          0  USEFUL:       2104  USELESS:      17927
LLC AVERAGE MISS LATENCY: 182.345 cycles
Major fault: 0 Minor fault: 2776
CPU 0 L1D next line prefetcher final stats

DRAM Statistics
 CHANNEL 0
 RQ ROW_BUFFER_HIT:       2448  ROW_BUFFER_MISS:      28677
 DBUS_CONGESTED:      14181
 WQ ROW_BUFFER_HIT:        808  ROW_BUFFER_MISS:      12819  FULL:          0

 AVG_CONGESTED_CYCLE: 4

CPU 0 Branch Prediction Accuracy: 93.9974% MPKI: 10.2447 Average ROB Occupancy at Mispredict: 40.2495

Branch types
NOT_BRANCH: 41466063 82.9321%
BRANCH_DIRECT_JUMP: 464313 0.928626%
BRANCH_INDIRECT: 32 6.4e-05%
BRANCH_CONDITIONAL: 7069456 14.1389%
BRANCH_DIRECT_CALL: 499587 0.999174%
BRANCH_INDIRECT_CALL: 342 0.000684%
BRANCH_RETURN: 499906 0.999812%
BRANCH_OTHER: 0 0%

