Initialize SIGNATURE TABLE
ST_SET: 1
ST_WAY: 256
ST_TAG_BIT: 16
ST_TAG_MASK: ffff

Initialize PATTERN TABLE
PT_SET: 512
PT_WAY: 4
SIG_DELTA_BIT: 7
C_SIG_BIT: 4
C_DELTA_BIT: 4

Initialize PREFETCH FILTER
FILTER_SET: 1024

*** ChampSim Multicore Out-of-Order Simulator ***

Warmup Instructions: 50000000
Simulation Instructions: 50000000
Number of CPUs: 1
LLC sets: 2048
LLC ways: 16
Off-chip DRAM Size: 4096 MB Channels: 1 Width: 64-bit Data Rate: 3200 MT/s

CPU 0 runs /mnt/c/Erika/College/Grad/CSE240C/HW1/ChampSim/ipc1_public/spec_gcc_001.champsimtrace.xz
L1I D-JOLT instruction prefetcher has been constructed!
CPU 0 L1D next line prefetcher
Heartbeat CPU 0 instructions: 10000003 cycles: 3219155 heartbeat IPC: 3.10641 cumulative IPC: 3.10641 (Simulation time: 0 hr 0 min 34 sec) 
Heartbeat CPU 0 instructions: 20000002 cycles: 6463944 heartbeat IPC: 3.08186 cumulative IPC: 3.09409 (Simulation time: 0 hr 1 min 9 sec) 
Heartbeat CPU 0 instructions: 30000000 cycles: 9664648 heartbeat IPC: 3.12431 cumulative IPC: 3.1041 (Simulation time: 0 hr 1 min 44 sec) 
Heartbeat CPU 0 instructions: 40000001 cycles: 12904552 heartbeat IPC: 3.08651 cumulative IPC: 3.09968 (Simulation time: 0 hr 2 min 24 sec) 
Heartbeat CPU 0 instructions: 50000001 cycles: 16144695 heartbeat IPC: 3.08628 cumulative IPC: 3.09699 (Simulation time: 0 hr 3 min 1 sec) 

Warmup complete CPU 0 instructions: 50000001 cycles: 16144695 (Simulation time: 0 hr 3 min 1 sec) 

Heartbeat CPU 0 instructions: 60000000 cycles: 23957257 heartbeat IPC: 1.27999 cumulative IPC: 1.27999 (Simulation time: 0 hr 3 min 36 sec) 
Heartbeat CPU 0 instructions: 70000002 cycles: 31858972 heartbeat IPC: 1.26555 cumulative IPC: 1.27273 (Simulation time: 0 hr 4 min 11 sec) 
Heartbeat CPU 0 instructions: 80000000 cycles: 39376109 heartbeat IPC: 1.33029 cumulative IPC: 1.29135 (Simulation time: 0 hr 4 min 45 sec) 
Heartbeat CPU 0 instructions: 90000001 cycles: 47254177 heartbeat IPC: 1.26935 cumulative IPC: 1.28578 (Simulation time: 0 hr 5 min 19 sec) 
Heartbeat CPU 0 instructions: 100000000 cycles: 55378528 heartbeat IPC: 1.23087 cumulative IPC: 1.27441 (Simulation time: 0 hr 5 min 54 sec) 
Finished CPU 0 instructions: 50000000 cycles: 39233837 cumulative IPC: 1.27441 (Simulation time: 0 hr 5 min 54 sec) 

ChampSim completed all CPUs

Region of Interest Statistics

CPU 0 cumulative IPC: 1.27441 instructions: 50000000 cycles: 39233837
L1D TOTAL     ACCESS:   19316704  HIT:   18211550  MISS:    1105154
L1D LOAD      ACCESS:    7230297  HIT:    6750726  MISS:     479571
L1D RFO       ACCESS:    5116374  HIT:    5036672  MISS:      79702
L1D PREFETCH  ACCESS:    6970033  HIT:    6424152  MISS:     545881
L1D WRITEBACK ACCESS:          0  HIT:          0  MISS:          0
L1D PREFETCH  REQUESTED:    7274131  ISSUED:    7176281  USEFUL:     275671  USELESS:     270222
L1D AVERAGE MISS LATENCY: 25.8522 cycles
L1I TOTAL     ACCESS:   14580846  HIT:   13686781  MISS:     894065
L1I LOAD      ACCESS:    9304407  HIT:    9255196  MISS:      49211
L1I RFO       ACCESS:          0  HIT:          0  MISS:          0
L1I PREFETCH  ACCESS:    5276439  HIT:    4431585  MISS:     844854
L1I WRITEBACK ACCESS:          0  HIT:          0  MISS:          0
L1I PREFETCH  REQUESTED:    5456523  ISSUED:    5438868  USEFUL:     437372  USELESS:     407550
L1I AVERAGE MISS LATENCY: 18.1666 cycles
L2C TOTAL     ACCESS:    3249719  HIT:    2989987  MISS:     259732
L2C LOAD      ACCESS:     496303  HIT:     410305  MISS:      85998
L2C RFO       ACCESS:      74991  HIT:      36332  MISS:      38659
L2C PREFETCH  ACCESS:    2424668  HIT:    2289985  MISS:     134683
L2C WRITEBACK ACCESS:     253757  HIT:     253365  MISS:        392
L2C PREFETCH  REQUESTED:    1975251  ISSUED:    1975111  USEFUL:      33494  USELESS:     101013
L2C AVERAGE MISS LATENCY: 63.4265 cycles
LLC TOTAL     ACCESS:     706992  HIT:     630838  MISS:      76154
LLC LOAD      ACCESS:      85806  HIT:      75104  MISS:      10702
LLC RFO       ACCESS:      38659  HIT:      17624  MISS:      21035
LLC PREFETCH  ACCESS:     489226  HIT:     445793  MISS:      43433
LLC WRITEBACK ACCESS:      93301  HIT:      92317  MISS:        984
LLC PREFETCH  REQUESTED:          0  ISSUED:          0  USEFUL:      13295  USELESS:      31598
LLC AVERAGE MISS LATENCY: 188.352 cycles
Major fault: 0 Minor fault: 6867
CPU 0 L1D next line prefetcher final stats

DRAM Statistics
 CHANNEL 0
 RQ ROW_BUFFER_HIT:      19728  ROW_BUFFER_MISS:      55434
 DBUS_CONGESTED:      36493
 WQ ROW_BUFFER_HIT:       4504  ROW_BUFFER_MISS:      24138  FULL:          0

 AVG_CONGESTED_CYCLE: 6

CPU 0 Branch Prediction Accuracy: 95.8872% MPKI: 9.67286 Average ROB Occupancy at Mispredict: 67.4542

Branch types
NOT_BRANCH: 38240102 76.4802%
BRANCH_DIRECT_JUMP: 653296 1.30659%
BRANCH_INDIRECT: 37098 0.074196%
BRANCH_CONDITIONAL: 8897819 17.7956%
BRANCH_DIRECT_CALL: 992620 1.98524%
BRANCH_INDIRECT_CALL: 93046 0.186092%
BRANCH_RETURN: 1085674 2.17135%
BRANCH_OTHER: 0 0%

