Initialize SIGNATURE TABLE
ST_SET: 1
ST_WAY: 256
ST_TAG_BIT: 16
ST_TAG_MASK: ffff

Initialize PATTERN TABLE
PT_SET: 512
PT_WAY: 4
SIG_DELTA_BIT: 7
C_SIG_BIT: 4
C_DELTA_BIT: 4

Initialize PREFETCH FILTER
FILTER_SET: 1024

*** ChampSim Multicore Out-of-Order Simulator ***

Warmup Instructions: 50000000
Simulation Instructions: 50000000
Number of CPUs: 1
LLC sets: 2048
LLC ways: 16
Off-chip DRAM Size: 4096 MB Channels: 1 Width: 64-bit Data Rate: 3200 MT/s

CPU 0 runs /mnt/c/Erika/College/Grad/CSE240C/HW1/ChampSim/ipc1_public/spec_gobmk_002.champsimtrace.xz
CPU 0 EPI prefetcher
CPU 0 L1D next line prefetcher
Heartbeat CPU 0 instructions: 10000001 cycles: 3287602 heartbeat IPC: 3.04173 cumulative IPC: 3.04173 (Simulation time: 0 hr 0 min 41 sec) 
Heartbeat CPU 0 instructions: 20000000 cycles: 6619225 heartbeat IPC: 3.00154 cumulative IPC: 3.0215 (Simulation time: 0 hr 1 min 23 sec) 
Heartbeat CPU 0 instructions: 30000000 cycles: 9957226 heartbeat IPC: 2.99581 cumulative IPC: 3.01289 (Simulation time: 0 hr 2 min 5 sec) 
Heartbeat CPU 0 instructions: 40000000 cycles: 13266665 heartbeat IPC: 3.02166 cumulative IPC: 3.01508 (Simulation time: 0 hr 2 min 55 sec) 
Heartbeat CPU 0 instructions: 50000003 cycles: 16530230 heartbeat IPC: 3.06413 cumulative IPC: 3.02476 (Simulation time: 0 hr 3 min 38 sec) 

Warmup complete CPU 0 instructions: 50000003 cycles: 16530230 (Simulation time: 0 hr 3 min 38 sec) 

Heartbeat CPU 0 instructions: 60000003 cycles: 23952514 heartbeat IPC: 1.34729 cumulative IPC: 1.34729 (Simulation time: 0 hr 4 min 19 sec) 
Heartbeat CPU 0 instructions: 70000003 cycles: 31306478 heartbeat IPC: 1.35981 cumulative IPC: 1.35352 (Simulation time: 0 hr 5 min 0 sec) 
Heartbeat CPU 0 instructions: 80000000 cycles: 38549432 heartbeat IPC: 1.38065 cumulative IPC: 1.36245 (Simulation time: 0 hr 5 min 42 sec) 
Heartbeat CPU 0 instructions: 90000001 cycles: 46099277 heartbeat IPC: 1.32453 cumulative IPC: 1.35277 (Simulation time: 0 hr 6 min 20 sec) 
Heartbeat CPU 0 instructions: 100000003 cycles: 53855656 heartbeat IPC: 1.28926 cumulative IPC: 1.33957 (Simulation time: 0 hr 6 min 59 sec) 
Finished CPU 0 instructions: 50000000 cycles: 37325426 cumulative IPC: 1.33957 (Simulation time: 0 hr 6 min 59 sec) 

ChampSim completed all CPUs

Region of Interest Statistics

CPU 0 cumulative IPC: 1.33957 instructions: 50000000 cycles: 37325426
L1D TOTAL     ACCESS:   17630131  HIT:   17507018  MISS:     123113
L1D LOAD      ACCESS:    6660409  HIT:    6626171  MISS:      34238
L1D RFO       ACCESS:    4387941  HIT:    4345267  MISS:      42674
L1D PREFETCH  ACCESS:    6581781  HIT:    6535580  MISS:      46201
L1D WRITEBACK ACCESS:          0  HIT:          0  MISS:          0
L1D PREFETCH  REQUESTED:    6662793  ISSUED:    6595545  USEFUL:      17135  USELESS:      29249
L1D AVERAGE MISS LATENCY: 50.1293 cycles
L1I TOTAL     ACCESS:   54554094  HIT:   51792909  MISS:    2761185
L1I LOAD      ACCESS:    8872408  HIT:    8764342  MISS:     108066
L1I RFO       ACCESS:          0  HIT:          0  MISS:          0
L1I PREFETCH  ACCESS:   45681686  HIT:   43028567  MISS:    2653119
L1I WRITEBACK ACCESS:          0  HIT:          0  MISS:          0
L1I PREFETCH  REQUESTED:   62399340  ISSUED:   62399340  USEFUL:    1075367  USELESS:    1577741
L1I AVERAGE MISS LATENCY: 14.7252 cycles
L2C TOTAL     ACCESS:    4655725  HIT:    4617306  MISS:      38419
L2C LOAD      ACCESS:     125126  HIT:     111429  MISS:      13697
L2C RFO       ACCESS:      42548  HIT:      39638  MISS:       2910
L2C PREFETCH  ACCESS:    4413852  HIT:    4392187  MISS:      21665
L2C WRITEBACK ACCESS:      74199  HIT:      74052  MISS:        147
L2C PREFETCH  REQUESTED:    4372927  ISSUED:    4372097  USEFUL:       2291  USELESS:      19636
L2C AVERAGE MISS LATENCY: 121.271 cycles
LLC TOTAL     ACCESS:     109540  HIT:      70161  MISS:      39379
LLC LOAD      ACCESS:      13696  HIT:       5309  MISS:       8387
LLC RFO       ACCESS:       2910  HIT:       1297  MISS:       1613
LLC PREFETCH  ACCESS:      74779  HIT:      46064  MISS:      28715
LLC WRITEBACK ACCESS:      18155  HIT:      17491  MISS:        664
LLC PREFETCH  REQUESTED:          0  ISSUED:          0  USEFUL:       2617  USELESS:      24970
LLC AVERAGE MISS LATENCY: 186.63 cycles
Major fault: 0 Minor fault: 2776
CPU 0 L1I EPI prefetcher final stats
CPU 0 L1D next line prefetcher final stats

DRAM Statistics
 CHANNEL 0
 RQ ROW_BUFFER_HIT:       3024  ROW_BUFFER_MISS:      35691
 DBUS_CONGESTED:      24379
 WQ ROW_BUFFER_HIT:        687  ROW_BUFFER_MISS:      15161  FULL:          0

 AVG_CONGESTED_CYCLE: 5

CPU 0 Branch Prediction Accuracy: 93.9974% MPKI: 10.2447 Average ROB Occupancy at Mispredict: 39.9413

Branch types
NOT_BRANCH: 41466062 82.9321%
BRANCH_DIRECT_JUMP: 464313 0.928626%
BRANCH_INDIRECT: 32 6.4e-05%
BRANCH_CONDITIONAL: 7069457 14.1389%
BRANCH_DIRECT_CALL: 499586 0.999172%
BRANCH_INDIRECT_CALL: 342 0.000684%
BRANCH_RETURN: 499906 0.999812%
BRANCH_OTHER: 0 0%

