Initialize SIGNATURE TABLE
ST_SET: 1
ST_WAY: 256
ST_TAG_BIT: 16
ST_TAG_MASK: ffff

Initialize PATTERN TABLE
PT_SET: 512
PT_WAY: 4
SIG_DELTA_BIT: 7
C_SIG_BIT: 4
C_DELTA_BIT: 4

Initialize PREFETCH FILTER
FILTER_SET: 1024

*** ChampSim Multicore Out-of-Order Simulator ***

Warmup Instructions: 50000000
Simulation Instructions: 50000000
Number of CPUs: 1
LLC sets: 2048
LLC ways: 16
Off-chip DRAM Size: 4096 MB Channels: 1 Width: 64-bit Data Rate: 3200 MT/s

CPU 0 runs /mnt/c/Erika/College/Grad/CSE240C/HW1/ChampSim/ipc1_public/spec_gcc_001.champsimtrace.xz
L1I D-JOLT instruction prefetcher has been constructed!
CPU 0 L1D next line prefetcher
Heartbeat CPU 0 instructions: 10000003 cycles: 3219166 heartbeat IPC: 3.1064 cumulative IPC: 3.1064 (Simulation time: 0 hr 0 min 43 sec) 
Heartbeat CPU 0 instructions: 20000002 cycles: 6463747 heartbeat IPC: 3.08206 cumulative IPC: 3.09418 (Simulation time: 0 hr 1 min 21 sec) 
Heartbeat CPU 0 instructions: 30000000 cycles: 9664809 heartbeat IPC: 3.12396 cumulative IPC: 3.10404 (Simulation time: 0 hr 1 min 56 sec) 
Heartbeat CPU 0 instructions: 40000001 cycles: 12906390 heartbeat IPC: 3.08491 cumulative IPC: 3.09924 (Simulation time: 0 hr 2 min 36 sec) 
Heartbeat CPU 0 instructions: 50000001 cycles: 16146764 heartbeat IPC: 3.08606 cumulative IPC: 3.0966 (Simulation time: 0 hr 3 min 19 sec) 

Warmup complete CPU 0 instructions: 50000001 cycles: 16146764 (Simulation time: 0 hr 3 min 19 sec) 

Heartbeat CPU 0 instructions: 60000000 cycles: 24011292 heartbeat IPC: 1.27153 cumulative IPC: 1.27153 (Simulation time: 0 hr 3 min 54 sec) 
Heartbeat CPU 0 instructions: 70000002 cycles: 31964558 heartbeat IPC: 1.25735 cumulative IPC: 1.2644 (Simulation time: 0 hr 4 min 32 sec) 
Heartbeat CPU 0 instructions: 80000000 cycles: 39523778 heartbeat IPC: 1.32289 cumulative IPC: 1.28331 (Simulation time: 0 hr 5 min 9 sec) 
Heartbeat CPU 0 instructions: 90000001 cycles: 47448441 heartbeat IPC: 1.26188 cumulative IPC: 1.27789 (Simulation time: 0 hr 5 min 46 sec) 
Heartbeat CPU 0 instructions: 100000000 cycles: 55674252 heartbeat IPC: 1.21569 cumulative IPC: 1.26494 (Simulation time: 0 hr 6 min 22 sec) 
Finished CPU 0 instructions: 50000000 cycles: 39527492 cumulative IPC: 1.26494 (Simulation time: 0 hr 6 min 22 sec) 

ChampSim completed all CPUs

Region of Interest Statistics

CPU 0 cumulative IPC: 1.26494 instructions: 50000000 cycles: 39527492
L1D TOTAL     ACCESS:   19330439  HIT:   18225278  MISS:    1105161
L1D LOAD      ACCESS:    7236644  HIT:    6757193  MISS:     479451
L1D RFO       ACCESS:    5116781  HIT:    5037044  MISS:      79737
L1D PREFETCH  ACCESS:    6977014  HIT:    6431041  MISS:     545973
L1D WRITEBACK ACCESS:          0  HIT:          0  MISS:          0
L1D PREFETCH  REQUESTED:    7280662  ISSUED:    7182527  USEFUL:     275748  USELESS:     270238
L1D AVERAGE MISS LATENCY: 25.696 cycles
L1I TOTAL     ACCESS:   14669593  HIT:   13585748  MISS:    1083845
L1I LOAD      ACCESS:    9314173  HIT:    9253280  MISS:      60893
L1I RFO       ACCESS:          0  HIT:          0  MISS:          0
L1I PREFETCH  ACCESS:    5355420  HIT:    4332468  MISS:    1022952
L1I WRITEBACK ACCESS:          0  HIT:          0  MISS:          0
L1I PREFETCH  REQUESTED:    5564718  ISSUED:    5537062  USEFUL:     457881  USELESS:     565132
L1I AVERAGE MISS LATENCY: 17.2321 cycles
L2C TOTAL     ACCESS:    3517092  HIT:    3262739  MISS:     254353
L2C LOAD      ACCESS:     505193  HIT:     415342  MISS:      89851
L2C RFO       ACCESS:      75016  HIT:      36505  MISS:      38511
L2C PREFETCH  ACCESS:    2683131  HIT:    2557578  MISS:     125553
L2C WRITEBACK ACCESS:     253752  HIT:     253314  MISS:        438
L2C PREFETCH  REQUESTED:    2124489  ISSUED:    2124264  USEFUL:      32986  USELESS:      92337
L2C AVERAGE MISS LATENCY: 62.9307 cycles
LLC TOTAL     ACCESS:     736607  HIT:     657803  MISS:      78804
LLC LOAD      ACCESS:      89647  HIT:      77630  MISS:      12017
LLC RFO       ACCESS:      38511  HIT:      17267  MISS:      21244
LLC PREFETCH  ACCESS:     515802  HIT:     471552  MISS:      44250
LLC WRITEBACK ACCESS:      92647  HIT:      91354  MISS:       1293
LLC PREFETCH  REQUESTED:          0  ISSUED:          0  USEFUL:      13860  USELESS:      32126
LLC AVERAGE MISS LATENCY: 182.039 cycles
Major fault: 0 Minor fault: 6868
CPU 0 L1D next line prefetcher final stats

DRAM Statistics
 CHANNEL 0
 RQ ROW_BUFFER_HIT:      19962  ROW_BUFFER_MISS:      57547
 DBUS_CONGESTED:      36784
 WQ ROW_BUFFER_HIT:       4386  ROW_BUFFER_MISS:      24555  FULL:          0

 AVG_CONGESTED_CYCLE: 6

CPU 0 Branch Prediction Accuracy: 95.8872% MPKI: 9.67286 Average ROB Occupancy at Mispredict: 66.8231

Branch types
NOT_BRANCH: 38240102 76.4802%
BRANCH_DIRECT_JUMP: 653296 1.30659%
BRANCH_INDIRECT: 37098 0.074196%
BRANCH_CONDITIONAL: 8897819 17.7956%
BRANCH_DIRECT_CALL: 992620 1.98524%
BRANCH_INDIRECT_CALL: 93046 0.186092%
BRANCH_RETURN: 1085674 2.17135%
BRANCH_OTHER: 0 0%

