Initialize SIGNATURE TABLE
ST_SET: 1
ST_WAY: 256
ST_TAG_BIT: 16
ST_TAG_MASK: ffff

Initialize PATTERN TABLE
PT_SET: 512
PT_WAY: 4
SIG_DELTA_BIT: 7
C_SIG_BIT: 4
C_DELTA_BIT: 4

Initialize PREFETCH FILTER
FILTER_SET: 1024

*** ChampSim Multicore Out-of-Order Simulator ***

Warmup Instructions: 50000000
Simulation Instructions: 50000000
Number of CPUs: 1
LLC sets: 2048
LLC ways: 16
Off-chip DRAM Size: 4096 MB Channels: 1 Width: 64-bit Data Rate: 3200 MT/s

CPU 0 runs /mnt/c/Erika/College/Grad/CSE240C/HW1/ChampSim/ipc1_public/spec_gobmk_001.champsimtrace.xz
L1I D-JOLT instruction prefetcher has been constructed!
CPU 0 L1D next line prefetcher
Heartbeat CPU 0 instructions: 10000003 cycles: 3509254 heartbeat IPC: 2.84961 cumulative IPC: 2.84961 (Simulation time: 0 hr 0 min 31 sec) 
Heartbeat CPU 0 instructions: 20000002 cycles: 6989427 heartbeat IPC: 2.87342 cumulative IPC: 2.86147 (Simulation time: 0 hr 1 min 3 sec) 
Heartbeat CPU 0 instructions: 30000002 cycles: 10508196 heartbeat IPC: 2.8419 cumulative IPC: 2.85491 (Simulation time: 0 hr 1 min 34 sec) 
Heartbeat CPU 0 instructions: 40000001 cycles: 14027137 heartbeat IPC: 2.84176 cumulative IPC: 2.85162 (Simulation time: 0 hr 2 min 6 sec) 
Heartbeat CPU 0 instructions: 50000001 cycles: 17567044 heartbeat IPC: 2.82493 cumulative IPC: 2.84624 (Simulation time: 0 hr 2 min 37 sec) 

Warmup complete CPU 0 instructions: 50000001 cycles: 17567044 (Simulation time: 0 hr 2 min 37 sec) 

Heartbeat CPU 0 instructions: 60000000 cycles: 26328965 heartbeat IPC: 1.1413 cumulative IPC: 1.1413 (Simulation time: 0 hr 3 min 5 sec) 
Heartbeat CPU 0 instructions: 70000002 cycles: 34731056 heartbeat IPC: 1.19018 cumulative IPC: 1.16523 (Simulation time: 0 hr 3 min 33 sec) 
Heartbeat CPU 0 instructions: 80000003 cycles: 43562588 heartbeat IPC: 1.13231 cumulative IPC: 1.15404 (Simulation time: 0 hr 4 min 0 sec) 
Heartbeat CPU 0 instructions: 90000001 cycles: 52057418 heartbeat IPC: 1.17719 cumulative IPC: 1.15974 (Simulation time: 0 hr 4 min 28 sec) 
Heartbeat CPU 0 instructions: 100000003 cycles: 60869269 heartbeat IPC: 1.13484 cumulative IPC: 1.15468 (Simulation time: 0 hr 4 min 55 sec) 
Finished CPU 0 instructions: 50000002 cycles: 43302225 cumulative IPC: 1.15468 (Simulation time: 0 hr 4 min 55 sec) 

ChampSim completed all CPUs

Region of Interest Statistics

CPU 0 cumulative IPC: 1.15468 instructions: 50000002 cycles: 43302225
L1D TOTAL     ACCESS:   17980292  HIT:   17600788  MISS:     379504
L1D LOAD      ACCESS:    7209081  HIT:    7073846  MISS:     135235
L1D RFO       ACCESS:    3701038  HIT:    3596485  MISS:     104553
L1D PREFETCH  ACCESS:    7070173  HIT:    6930457  MISS:     139716
L1D WRITEBACK ACCESS:          0  HIT:          0  MISS:          0
L1D PREFETCH  REQUESTED:    7214484  ISSUED:    7131763  USEFUL:      45022  USELESS:      94700
L1D AVERAGE MISS LATENCY: 33.7247 cycles
L1I TOTAL     ACCESS:   14107970  HIT:   12480202  MISS:    1627768
L1I LOAD      ACCESS:    8975500  HIT:    8928419  MISS:      47081
L1I RFO       ACCESS:          0  HIT:          0  MISS:          0
L1I PREFETCH  ACCESS:    5132470  HIT:    3551783  MISS:    1580687
L1I WRITEBACK ACCESS:          0  HIT:          0  MISS:          0
L1I PREFETCH  REQUESTED:    5301816  ISSUED:    5178235  USEFUL:     797624  USELESS:     783020
L1I AVERAGE MISS LATENCY: 15.2306 cycles
L2C TOTAL     ACCESS:    2864436  HIT:    2737740  MISS:     126696
L2C LOAD      ACCESS:     155774  HIT:     120535  MISS:      35239
L2C RFO       ACCESS:     104210  HIT:      69689  MISS:      34521
L2C PREFETCH  ACCESS:    2465163  HIT:    2408319  MISS:      56844
L2C WRITEBACK ACCESS:     139289  HIT:     139197  MISS:         92
L2C PREFETCH  REQUESTED:    1320470  ISSUED:    1320368  USEFUL:       5241  USELESS:      51920
L2C AVERAGE MISS LATENCY: 64.2721 cycles
LLC TOTAL     ACCESS:     317584  HIT:     283433  MISS:      34151
LLC LOAD      ACCESS:      35236  HIT:      27014  MISS:       8222
LLC RFO       ACCESS:      34521  HIT:      28118  MISS:       6403
LLC PREFETCH  ACCESS:     202301  HIT:     183017  MISS:      19284
LLC WRITEBACK ACCESS:      45526  HIT:      45284  MISS:        242
LLC PREFETCH  REQUESTED:          0  ISSUED:          0  USEFUL:       1281  USELESS:      16525
LLC AVERAGE MISS LATENCY: 179.351 cycles
Major fault: 0 Minor fault: 4156
CPU 0 L1D next line prefetcher final stats

DRAM Statistics
 CHANNEL 0
 RQ ROW_BUFFER_HIT:       4287  ROW_BUFFER_MISS:      29622
 DBUS_CONGESTED:      17915
 WQ ROW_BUFFER_HIT:       1401  ROW_BUFFER_MISS:      14232  FULL:          0

 AVG_CONGESTED_CYCLE: 4

CPU 0 Branch Prediction Accuracy: 94.7729% MPKI: 9.72684 Average ROB Occupancy at Mispredict: 54.1936

Branch types
NOT_BRANCH: 40695383 81.3908%
BRANCH_DIRECT_JUMP: 422107 0.844214%
BRANCH_INDIRECT: 65 0.00013%
BRANCH_CONDITIONAL: 8105005 16.21%
BRANCH_DIRECT_CALL: 374913 0.749826%
BRANCH_INDIRECT_CALL: 13657 0.027314%
BRANCH_RETURN: 388556 0.777112%
BRANCH_OTHER: 0 0%

