Initialize SIGNATURE TABLE
ST_SET: 1
ST_WAY: 256
ST_TAG_BIT: 16
ST_TAG_MASK: ffff

Initialize PATTERN TABLE
PT_SET: 512
PT_WAY: 4
SIG_DELTA_BIT: 7
C_SIG_BIT: 4
C_DELTA_BIT: 4

Initialize PREFETCH FILTER
FILTER_SET: 1024

*** ChampSim Multicore Out-of-Order Simulator ***

Warmup Instructions: 50000000
Simulation Instructions: 50000000
Number of CPUs: 1
LLC sets: 2048
LLC ways: 16
Off-chip DRAM Size: 4096 MB Channels: 1 Width: 64-bit Data Rate: 3200 MT/s

CPU 0 runs /mnt/c/Erika/College/Grad/CSE240C/HW1/ChampSim/ipc1_public/spec_gcc_001.champsimtrace.xz
CPU 0 EPI prefetcher
CPU 0 L1D next line prefetcher
Heartbeat CPU 0 instructions: 10000003 cycles: 3220201 heartbeat IPC: 3.1054 cumulative IPC: 3.1054 (Simulation time: 0 hr 0 min 49 sec) 
Heartbeat CPU 0 instructions: 20000002 cycles: 6466320 heartbeat IPC: 3.0806 cumulative IPC: 3.09295 (Simulation time: 0 hr 1 min 34 sec) 
Heartbeat CPU 0 instructions: 30000000 cycles: 9663997 heartbeat IPC: 3.12727 cumulative IPC: 3.10431 (Simulation time: 0 hr 2 min 19 sec) 
Heartbeat CPU 0 instructions: 40000001 cycles: 12904646 heartbeat IPC: 3.0858 cumulative IPC: 3.09966 (Simulation time: 0 hr 3 min 3 sec) 
Heartbeat CPU 0 instructions: 50000001 cycles: 16146388 heartbeat IPC: 3.08476 cumulative IPC: 3.09667 (Simulation time: 0 hr 3 min 49 sec) 

Warmup complete CPU 0 instructions: 50000001 cycles: 16146388 (Simulation time: 0 hr 3 min 49 sec) 

Heartbeat CPU 0 instructions: 60000000 cycles: 23910133 heartbeat IPC: 1.28804 cumulative IPC: 1.28804 (Simulation time: 0 hr 4 min 30 sec) 
Heartbeat CPU 0 instructions: 70000002 cycles: 31761325 heartbeat IPC: 1.27369 cumulative IPC: 1.28082 (Simulation time: 0 hr 5 min 13 sec) 
Heartbeat CPU 0 instructions: 80000000 cycles: 39269048 heartbeat IPC: 1.33196 cumulative IPC: 1.29743 (Simulation time: 0 hr 5 min 55 sec) 
Heartbeat CPU 0 instructions: 90000001 cycles: 47092286 heartbeat IPC: 1.27824 cumulative IPC: 1.29258 (Simulation time: 0 hr 6 min 38 sec) 
Heartbeat CPU 0 instructions: 100000000 cycles: 55173807 heartbeat IPC: 1.23739 cumulative IPC: 1.28115 (Simulation time: 0 hr 7 min 22 sec) 
Finished CPU 0 instructions: 50000000 cycles: 39027423 cumulative IPC: 1.28115 (Simulation time: 0 hr 7 min 22 sec) 

ChampSim completed all CPUs

Region of Interest Statistics

CPU 0 cumulative IPC: 1.28115 instructions: 50000000 cycles: 39027423
L1D TOTAL     ACCESS:   19305837  HIT:   18200681  MISS:    1105156
L1D LOAD      ACCESS:    7224868  HIT:    6745018  MISS:     479850
L1D RFO       ACCESS:    5116315  HIT:    5036683  MISS:      79632
L1D PREFETCH  ACCESS:    6964654  HIT:    6418980  MISS:     545674
L1D WRITEBACK ACCESS:          0  HIT:          0  MISS:          0
L1D PREFETCH  REQUESTED:    7269235  ISSUED:    7171725  USEFUL:     275450  USELESS:     270236
L1D AVERAGE MISS LATENCY: 25.9235 cycles
L1I TOTAL     ACCESS:   37577092  HIT:   36572725  MISS:    1004367
L1I LOAD      ACCESS:    9295547  HIT:    9251606  MISS:      43941
L1I RFO       ACCESS:          0  HIT:          0  MISS:          0
L1I PREFETCH  ACCESS:   28281545  HIT:   27321119  MISS:     960426
L1I WRITEBACK ACCESS:          0  HIT:          0  MISS:          0
L1I PREFETCH  REQUESTED:   36645676  ISSUED:   36645676  USEFUL:     452384  USELESS:     508017
L1I AVERAGE MISS LATENCY: 17.9521 cycles
L2C TOTAL     ACCESS:    3415599  HIT:    3144156  MISS:     271443
L2C LOAD      ACCESS:     483477  HIT:     399097  MISS:      84380
L2C RFO       ACCESS:      74980  HIT:      35806  MISS:      39174
L2C PREFETCH  ACCESS:    2603379  HIT:    2455993  MISS:     147386
L2C WRITEBACK ACCESS:     253763  HIT:     253260  MISS:        503
L2C PREFETCH  REQUESTED:    2420847  ISSUED:    2420188  USEFUL:      33246  USELESS:     113805
L2C AVERAGE MISS LATENCY: 61.1737 cycles
LLC TOTAL     ACCESS:     776944  HIT:     702985  MISS:      73959
LLC LOAD      ACCESS:      84172  HIT:      74049  MISS:      10123
LLC RFO       ACCESS:      39174  HIT:      18379  MISS:      20795
LLC PREFETCH  ACCESS:     557794  HIT:     515595  MISS:      42199
LLC WRITEBACK ACCESS:      95804  HIT:      94962  MISS:        842
LLC PREFETCH  REQUESTED:          0  ISSUED:          0  USEFUL:      13474  USELESS:      28170
LLC AVERAGE MISS LATENCY: 185.371 cycles
Major fault: 0 Minor fault: 6870
CPU 0 L1I EPI prefetcher final stats
CPU 0 L1D next line prefetcher final stats

DRAM Statistics
 CHANNEL 0
 RQ ROW_BUFFER_HIT:      19849  ROW_BUFFER_MISS:      53264
 DBUS_CONGESTED:      38716
 WQ ROW_BUFFER_HIT:       4440  ROW_BUFFER_MISS:      23759  FULL:          0

 AVG_CONGESTED_CYCLE: 6

CPU 0 Branch Prediction Accuracy: 95.8872% MPKI: 9.67286 Average ROB Occupancy at Mispredict: 67.8495

Branch types
NOT_BRANCH: 38240105 76.4802%
BRANCH_DIRECT_JUMP: 653296 1.30659%
BRANCH_INDIRECT: 37098 0.074196%
BRANCH_CONDITIONAL: 8897820 17.7956%
BRANCH_DIRECT_CALL: 992620 1.98524%
BRANCH_INDIRECT_CALL: 93046 0.186092%
BRANCH_RETURN: 1085674 2.17135%
BRANCH_OTHER: 0 0%

