Initialize SIGNATURE TABLE
ST_SET: 1
ST_WAY: 256
ST_TAG_BIT: 16
ST_TAG_MASK: ffff

Initialize PATTERN TABLE
PT_SET: 512
PT_WAY: 4
SIG_DELTA_BIT: 7
C_SIG_BIT: 4
C_DELTA_BIT: 4

Initialize PREFETCH FILTER
FILTER_SET: 1024

*** ChampSim Multicore Out-of-Order Simulator ***

Warmup Instructions: 50000000
Simulation Instructions: 50000000
Number of CPUs: 1
LLC sets: 2048
LLC ways: 16
Off-chip DRAM Size: 4096 MB Channels: 1 Width: 64-bit Data Rate: 3200 MT/s

CPU 0 runs /mnt/c/Erika/College/Grad/CSE240C/HW1/ChampSim/ipc1_public/spec_gobmk_002.champsimtrace.xz
CPU 0 EPI prefetcher
CPU 0 L1D next line prefetcher
Heartbeat CPU 0 instructions: 10000001 cycles: 3287570 heartbeat IPC: 3.04176 cumulative IPC: 3.04176 (Simulation time: 0 hr 0 min 48 sec) 
Heartbeat CPU 0 instructions: 20000000 cycles: 6619154 heartbeat IPC: 3.00157 cumulative IPC: 3.02153 (Simulation time: 0 hr 1 min 47 sec) 
Heartbeat CPU 0 instructions: 30000000 cycles: 9957186 heartbeat IPC: 2.99578 cumulative IPC: 3.0129 (Simulation time: 0 hr 2 min 44 sec) 
Heartbeat CPU 0 instructions: 40000000 cycles: 13266678 heartbeat IPC: 3.02161 cumulative IPC: 3.01507 (Simulation time: 0 hr 3 min 45 sec) 
Heartbeat CPU 0 instructions: 50000003 cycles: 16530243 heartbeat IPC: 3.06413 cumulative IPC: 3.02476 (Simulation time: 0 hr 4 min 37 sec) 

Warmup complete CPU 0 instructions: 50000003 cycles: 16530243 (Simulation time: 0 hr 4 min 37 sec) 

Heartbeat CPU 0 instructions: 60000003 cycles: 23966998 heartbeat IPC: 1.34467 cumulative IPC: 1.34467 (Simulation time: 0 hr 5 min 21 sec) 
Heartbeat CPU 0 instructions: 70000001 cycles: 31340292 heartbeat IPC: 1.35625 cumulative IPC: 1.35043 (Simulation time: 0 hr 6 min 5 sec) 
Heartbeat CPU 0 instructions: 80000000 cycles: 38598140 heartbeat IPC: 1.37782 cumulative IPC: 1.35944 (Simulation time: 0 hr 6 min 49 sec) 
Heartbeat CPU 0 instructions: 90000001 cycles: 46155925 heartbeat IPC: 1.32314 cumulative IPC: 1.35018 (Simulation time: 0 hr 7 min 31 sec) 
Heartbeat CPU 0 instructions: 100000003 cycles: 53931346 heartbeat IPC: 1.2861 cumulative IPC: 1.33686 (Simulation time: 0 hr 8 min 14 sec) 
Finished CPU 0 instructions: 50000000 cycles: 37401103 cumulative IPC: 1.33686 (Simulation time: 0 hr 8 min 14 sec) 

ChampSim completed all CPUs

Region of Interest Statistics

CPU 0 cumulative IPC: 1.33686 instructions: 50000000 cycles: 37401103
L1D TOTAL     ACCESS:   17632800  HIT:   17509675  MISS:     123125
L1D LOAD      ACCESS:    6661763  HIT:    6627517  MISS:      34246
L1D RFO       ACCESS:    4387758  HIT:    4345072  MISS:      42686
L1D PREFETCH  ACCESS:    6583279  HIT:    6537086  MISS:      46193
L1D WRITEBACK ACCESS:          0  HIT:          0  MISS:          0
L1D PREFETCH  REQUESTED:    6664137  ISSUED:    6596945  USEFUL:      17124  USELESS:      29253
L1D AVERAGE MISS LATENCY: 50.0627 cycles
L1I TOTAL     ACCESS:   53823823  HIT:   51434735  MISS:    2389088
L1I LOAD      ACCESS:    8866036  HIT:    8742485  MISS:     123551
L1I RFO       ACCESS:          0  HIT:          0  MISS:          0
L1I PREFETCH  ACCESS:   44957787  HIT:   42692250  MISS:    2265537
L1I WRITEBACK ACCESS:          0  HIT:          0  MISS:          0
L1I PREFETCH  REQUESTED:   61327056  ISSUED:   61327056  USEFUL:     982310  USELESS:    1283234
L1I AVERAGE MISS LATENCY: 14.7003 cycles
L2C TOTAL     ACCESS:    4065346  HIT:    4027053  MISS:      38293
L2C LOAD      ACCESS:     139903  HIT:     126276  MISS:      13627
L2C RFO       ACCESS:      42548  HIT:      39655  MISS:       2893
L2C PREFETCH  ACCESS:    3808691  HIT:    3787077  MISS:      21614
L2C WRITEBACK ACCESS:      74204  HIT:      74045  MISS:        159
L2C PREFETCH  REQUESTED:    3701041  ISSUED:    3700600  USEFUL:       2267  USELESS:      19628
L2C AVERAGE MISS LATENCY: 121.555 cycles
LLC TOTAL     ACCESS:     107393  HIT:      68553  MISS:      38840
LLC LOAD      ACCESS:      13627  HIT:       5177  MISS:       8450
LLC RFO       ACCESS:       2893  HIT:       1283  MISS:       1610
LLC PREFETCH  ACCESS:      72752  HIT:      44625  MISS:      28127
LLC WRITEBACK ACCESS:      18121  HIT:      17468  MISS:        653
LLC PREFETCH  REQUESTED:          0  ISSUED:          0  USEFUL:       2554  USELESS:      24606
LLC AVERAGE MISS LATENCY: 185.902 cycles
Major fault: 0 Minor fault: 2776
CPU 0 L1I EPI prefetcher final stats
CPU 0 L1D next line prefetcher final stats

DRAM Statistics
 CHANNEL 0
 RQ ROW_BUFFER_HIT:       3008  ROW_BUFFER_MISS:      35179
 DBUS_CONGESTED:      23983
 WQ ROW_BUFFER_HIT:        722  ROW_BUFFER_MISS:      14966  FULL:          0

 AVG_CONGESTED_CYCLE: 5

CPU 0 Branch Prediction Accuracy: 93.9974% MPKI: 10.2447 Average ROB Occupancy at Mispredict: 39.8563

Branch types
NOT_BRANCH: 41466063 82.9321%
BRANCH_DIRECT_JUMP: 464313 0.928626%
BRANCH_INDIRECT: 32 6.4e-05%
BRANCH_CONDITIONAL: 7069456 14.1389%
BRANCH_DIRECT_CALL: 499587 0.999174%
BRANCH_INDIRECT_CALL: 342 0.000684%
BRANCH_RETURN: 499906 0.999812%
BRANCH_OTHER: 0 0%

