Initialize SIGNATURE TABLE
ST_SET: 1
ST_WAY: 256
ST_TAG_BIT: 16
ST_TAG_MASK: ffff

Initialize PATTERN TABLE
PT_SET: 512
PT_WAY: 4
SIG_DELTA_BIT: 7
C_SIG_BIT: 4
C_DELTA_BIT: 4

Initialize PREFETCH FILTER
FILTER_SET: 1024

*** ChampSim Multicore Out-of-Order Simulator ***

Warmup Instructions: 50000000
Simulation Instructions: 50000000
Number of CPUs: 1
LLC sets: 2048
LLC ways: 16
Off-chip DRAM Size: 4096 MB Channels: 1 Width: 64-bit Data Rate: 3200 MT/s

CPU 0 runs /mnt/c/Erika/College/Grad/CSE240C/HW1/ChampSim/ipc1_public/spec_gobmk_001.champsimtrace.xz
L1I D-JOLT instruction prefetcher has been constructed!
CPU 0 L1D next line prefetcher
Heartbeat CPU 0 instructions: 10000003 cycles: 3509910 heartbeat IPC: 2.84908 cumulative IPC: 2.84908 (Simulation time: 0 hr 0 min 33 sec) 
Heartbeat CPU 0 instructions: 20000002 cycles: 6991042 heartbeat IPC: 2.87263 cumulative IPC: 2.8608 (Simulation time: 0 hr 1 min 10 sec) 
Heartbeat CPU 0 instructions: 30000002 cycles: 10509841 heartbeat IPC: 2.84188 cumulative IPC: 2.85447 (Simulation time: 0 hr 1 min 51 sec) 
Heartbeat CPU 0 instructions: 40000001 cycles: 14028755 heartbeat IPC: 2.84179 cumulative IPC: 2.85129 (Simulation time: 0 hr 2 min 29 sec) 
Heartbeat CPU 0 instructions: 50000001 cycles: 17568768 heartbeat IPC: 2.82485 cumulative IPC: 2.84596 (Simulation time: 0 hr 3 min 3 sec) 

Warmup complete CPU 0 instructions: 50000001 cycles: 17568768 (Simulation time: 0 hr 3 min 3 sec) 

Heartbeat CPU 0 instructions: 60000000 cycles: 26371486 heartbeat IPC: 1.13601 cumulative IPC: 1.13601 (Simulation time: 0 hr 3 min 32 sec) 
Heartbeat CPU 0 instructions: 70000002 cycles: 34813443 heartbeat IPC: 1.18456 cumulative IPC: 1.15978 (Simulation time: 0 hr 4 min 1 sec) 
Heartbeat CPU 0 instructions: 80000003 cycles: 43677660 heartbeat IPC: 1.12813 cumulative IPC: 1.14903 (Simulation time: 0 hr 4 min 30 sec) 
Heartbeat CPU 0 instructions: 90000001 cycles: 52196839 heartbeat IPC: 1.17382 cumulative IPC: 1.15513 (Simulation time: 0 hr 4 min 59 sec) 
Heartbeat CPU 0 instructions: 100000003 cycles: 61047614 heartbeat IPC: 1.12984 cumulative IPC: 1.14998 (Simulation time: 0 hr 5 min 35 sec) 
Finished CPU 0 instructions: 50000002 cycles: 43478846 cumulative IPC: 1.14998 (Simulation time: 0 hr 5 min 35 sec) 

ChampSim completed all CPUs

Region of Interest Statistics

CPU 0 cumulative IPC: 1.14998 instructions: 50000002 cycles: 43478846
L1D TOTAL     ACCESS:   17994500  HIT:   17614987  MISS:     379513
L1D LOAD      ACCESS:    7216152  HIT:    7080836  MISS:     135316
L1D RFO       ACCESS:    3701482  HIT:    3596930  MISS:     104552
L1D PREFETCH  ACCESS:    7076866  HIT:    6937221  MISS:     139645
L1D WRITEBACK ACCESS:          0  HIT:          0  MISS:          0
L1D PREFETCH  REQUESTED:    7221502  ISSUED:    7138800  USEFUL:      44963  USELESS:      94688
L1D AVERAGE MISS LATENCY: 33.9325 cycles
L1I TOTAL     ACCESS:   14282919  HIT:   12587955  MISS:    1694964
L1I LOAD      ACCESS:    8984541  HIT:    8919652  MISS:      64889
L1I RFO       ACCESS:          0  HIT:          0  MISS:          0
L1I PREFETCH  ACCESS:    5298378  HIT:    3668303  MISS:    1630075
L1I WRITEBACK ACCESS:          0  HIT:          0  MISS:          0
L1I PREFETCH  REQUESTED:    5430411  ISSUED:    5344921  USEFUL:     776131  USELESS:     853922
L1I AVERAGE MISS LATENCY: 15.1859 cycles
L2C TOTAL     ACCESS:    2958449  HIT:    2830432  MISS:     128017
L2C LOAD      ACCESS:     171349  HIT:     135423  MISS:      35926
L2C RFO       ACCESS:     104189  HIT:      69758  MISS:      34431
L2C PREFETCH  ACCESS:    2543626  HIT:    2486060  MISS:      57566
L2C WRITEBACK ACCESS:     139285  HIT:     139191  MISS:         94
L2C PREFETCH  REQUESTED:    1235122  ISSUED:    1235021  USEFUL:       5437  USELESS:      52471
L2C AVERAGE MISS LATENCY: 64.3749 cycles
LLC TOTAL     ACCESS:     265557  HIT:     232146  MISS:      33411
LLC LOAD      ACCESS:      35922  HIT:      27728  MISS:       8194
LLC RFO       ACCESS:      34431  HIT:      27977  MISS:       6454
LLC PREFETCH  ACCESS:     149712  HIT:     131171  MISS:      18541
LLC WRITEBACK ACCESS:      45492  HIT:      45270  MISS:        222
LLC PREFETCH  REQUESTED:          0  ISSUED:          0  USEFUL:       1264  USELESS:      16135
LLC AVERAGE MISS LATENCY: 180.303 cycles
Major fault: 0 Minor fault: 4160
CPU 0 L1D next line prefetcher final stats

DRAM Statistics
 CHANNEL 0
 RQ ROW_BUFFER_HIT:       4383  ROW_BUFFER_MISS:      28805
 DBUS_CONGESTED:      17822
 WQ ROW_BUFFER_HIT:       1421  ROW_BUFFER_MISS:      14100  FULL:          0

 AVG_CONGESTED_CYCLE: 4

CPU 0 Branch Prediction Accuracy: 94.7729% MPKI: 9.72684 Average ROB Occupancy at Mispredict: 53.7873

Branch types
NOT_BRANCH: 40695384 81.3908%
BRANCH_DIRECT_JUMP: 422107 0.844214%
BRANCH_INDIRECT: 65 0.00013%
BRANCH_CONDITIONAL: 8105006 16.21%
BRANCH_DIRECT_CALL: 374913 0.749826%
BRANCH_INDIRECT_CALL: 13657 0.027314%
BRANCH_RETURN: 388556 0.777112%
BRANCH_OTHER: 0 0%

