Initialize SIGNATURE TABLE
ST_SET: 1
ST_WAY: 256
ST_TAG_BIT: 16
ST_TAG_MASK: ffff

Initialize PATTERN TABLE
PT_SET: 512
PT_WAY: 4
SIG_DELTA_BIT: 7
C_SIG_BIT: 4
C_DELTA_BIT: 4

Initialize PREFETCH FILTER
FILTER_SET: 1024

*** ChampSim Multicore Out-of-Order Simulator ***

Warmup Instructions: 50000000
Simulation Instructions: 50000000
Number of CPUs: 1
LLC sets: 2048
LLC ways: 16
Off-chip DRAM Size: 4096 MB Channels: 1 Width: 64-bit Data Rate: 3200 MT/s

CPU 0 runs /mnt/c/Erika/College/Grad/CSE240C/HW1/ChampSim/ipc1_public/spec_gobmk_001.champsimtrace.xz
CPU 0 EPI prefetcher
CPU 0 L1D next line prefetcher
Heartbeat CPU 0 instructions: 10000003 cycles: 3507919 heartbeat IPC: 2.85069 cumulative IPC: 2.85069 (Simulation time: 0 hr 0 min 40 sec) 
Heartbeat CPU 0 instructions: 20000002 cycles: 6988901 heartbeat IPC: 2.87275 cumulative IPC: 2.86168 (Simulation time: 0 hr 1 min 21 sec) 
Heartbeat CPU 0 instructions: 30000002 cycles: 10508817 heartbeat IPC: 2.84098 cumulative IPC: 2.85475 (Simulation time: 0 hr 2 min 2 sec) 
Heartbeat CPU 0 instructions: 40000001 cycles: 14029201 heartbeat IPC: 2.8406 cumulative IPC: 2.8512 (Simulation time: 0 hr 2 min 43 sec) 
Heartbeat CPU 0 instructions: 50000001 cycles: 17570262 heartbeat IPC: 2.82401 cumulative IPC: 2.84572 (Simulation time: 0 hr 3 min 25 sec) 

Warmup complete CPU 0 instructions: 50000001 cycles: 17570262 (Simulation time: 0 hr 3 min 25 sec) 

Heartbeat CPU 0 instructions: 60000000 cycles: 26386791 heartbeat IPC: 1.13423 cumulative IPC: 1.13423 (Simulation time: 0 hr 4 min 6 sec) 
Heartbeat CPU 0 instructions: 70000002 cycles: 34847575 heartbeat IPC: 1.18192 cumulative IPC: 1.15759 (Simulation time: 0 hr 4 min 47 sec) 
Heartbeat CPU 0 instructions: 80000003 cycles: 43729261 heartbeat IPC: 1.12591 cumulative IPC: 1.14683 (Simulation time: 0 hr 5 min 26 sec) 
Heartbeat CPU 0 instructions: 90000001 cycles: 52289070 heartbeat IPC: 1.16825 cumulative IPC: 1.15211 (Simulation time: 0 hr 6 min 4 sec) 
Heartbeat CPU 0 instructions: 100000003 cycles: 61167802 heartbeat IPC: 1.12629 cumulative IPC: 1.14685 (Simulation time: 0 hr 6 min 45 sec) 
Finished CPU 0 instructions: 50000002 cycles: 43597540 cumulative IPC: 1.14685 (Simulation time: 0 hr 6 min 45 sec) 

ChampSim completed all CPUs

Region of Interest Statistics

CPU 0 cumulative IPC: 1.14685 instructions: 50000002 cycles: 43597540
L1D TOTAL     ACCESS:   18022742  HIT:   17643199  MISS:     379543
L1D LOAD      ACCESS:    7229713  HIT:    7095932  MISS:     133781
L1D RFO       ACCESS:    3701639  HIT:    3597091  MISS:     104548
L1D PREFETCH  ACCESS:    7091390  HIT:    6950176  MISS:     141214
L1D WRITEBACK ACCESS:          0  HIT:          0  MISS:          0
L1D PREFETCH  REQUESTED:    7235384  ISSUED:    7152630  USEFUL:      46521  USELESS:      94699
L1D AVERAGE MISS LATENCY: 34.3862 cycles
L1I TOTAL     ACCESS:   53667138  HIT:   50803165  MISS:    2863973
L1I LOAD      ACCESS:    9004181  HIT:    8926631  MISS:      77550
L1I RFO       ACCESS:          0  HIT:          0  MISS:          0
L1I PREFETCH  ACCESS:   44662957  HIT:   41876534  MISS:    2786423
L1I WRITEBACK ACCESS:          0  HIT:          0  MISS:          0
L1I PREFETCH  REQUESTED:   59841603  ISSUED:   59841603  USEFUL:     931967  USELESS:    1854415
L1I AVERAGE MISS LATENCY: 15.1755 cycles
L2C TOTAL     ACCESS:    5137416  HIT:    5001038  MISS:     136378
L2C LOAD      ACCESS:     177231  HIT:     141606  MISS:      35625
L2C RFO       ACCESS:     104200  HIT:      68360  MISS:      35840
L2C PREFETCH  ACCESS:    4716684  HIT:    4651934  MISS:      64750
L2C WRITEBACK ACCESS:     139301  HIT:     139138  MISS:        163
L2C PREFETCH  REQUESTED:    4537191  ISSUED:    4534911  USEFUL:       5049  USELESS:      60006
L2C AVERAGE MISS LATENCY: 63.6824 cycles
LLC TOTAL     ACCESS:     314586  HIT:     272563  MISS:      42023
LLC LOAD      ACCESS:      35622  HIT:      27415  MISS:       8207
LLC RFO       ACCESS:      35838  HIT:      28000  MISS:       7838
LLC PREFETCH  ACCESS:     195984  HIT:     170341  MISS:      25643
LLC WRITEBACK ACCESS:      47142  HIT:      46807  MISS:        335
LLC PREFETCH  REQUESTED:          0  ISSUED:          0  USEFUL:       1403  USELESS:      22206
LLC AVERAGE MISS LATENCY: 176.46 cycles
Major fault: 0 Minor fault: 4159
CPU 0 L1I EPI prefetcher final stats
CPU 0 L1D next line prefetcher final stats

DRAM Statistics
 CHANNEL 0
 RQ ROW_BUFFER_HIT:       5625  ROW_BUFFER_MISS:      36062
 DBUS_CONGESTED:      26041
 WQ ROW_BUFFER_HIT:       1691  ROW_BUFFER_MISS:      16435  FULL:          0

 AVG_CONGESTED_CYCLE: 5

CPU 0 Branch Prediction Accuracy: 94.7729% MPKI: 9.72684 Average ROB Occupancy at Mispredict: 53.6762

Branch types
NOT_BRANCH: 40695365 81.3907%
BRANCH_DIRECT_JUMP: 422107 0.844214%
BRANCH_INDIRECT: 65 0.00013%
BRANCH_CONDITIONAL: 8105004 16.21%
BRANCH_DIRECT_CALL: 374912 0.749824%
BRANCH_INDIRECT_CALL: 13657 0.027314%
BRANCH_RETURN: 388556 0.777112%
BRANCH_OTHER: 0 0%

