Initialize SIGNATURE TABLE
ST_SET: 1
ST_WAY: 256
ST_TAG_BIT: 16
ST_TAG_MASK: ffff

Initialize PATTERN TABLE
PT_SET: 512
PT_WAY: 4
SIG_DELTA_BIT: 7
C_SIG_BIT: 4
C_DELTA_BIT: 4

Initialize PREFETCH FILTER
FILTER_SET: 1024

*** ChampSim Multicore Out-of-Order Simulator ***

Warmup Instructions: 50000000
Simulation Instructions: 50000000
Number of CPUs: 1
LLC sets: 2048
LLC ways: 16
Off-chip DRAM Size: 4096 MB Channels: 1 Width: 64-bit Data Rate: 3200 MT/s

CPU 0 runs /mnt/c/Erika/College/Grad/CSE240C/HW1/ChampSim/ipc1_public/spec_gobmk_001.champsimtrace.xz
L1I D-JOLT instruction prefetcher has been constructed!
CPU 0 L1D next line prefetcher
Heartbeat CPU 0 instructions: 10000003 cycles: 3506855 heartbeat IPC: 2.85156 cumulative IPC: 2.85156 (Simulation time: 0 hr 0 min 32 sec) 
Heartbeat CPU 0 instructions: 20000002 cycles: 6987002 heartbeat IPC: 2.87344 cumulative IPC: 2.86246 (Simulation time: 0 hr 1 min 3 sec) 
Heartbeat CPU 0 instructions: 30000002 cycles: 10505728 heartbeat IPC: 2.84194 cumulative IPC: 2.85559 (Simulation time: 0 hr 1 min 35 sec) 
Heartbeat CPU 0 instructions: 40000001 cycles: 14024850 heartbeat IPC: 2.84162 cumulative IPC: 2.85208 (Simulation time: 0 hr 2 min 7 sec) 
Heartbeat CPU 0 instructions: 50000001 cycles: 17564937 heartbeat IPC: 2.82479 cumulative IPC: 2.84658 (Simulation time: 0 hr 2 min 39 sec) 

Warmup complete CPU 0 instructions: 50000001 cycles: 17564937 (Simulation time: 0 hr 2 min 39 sec) 

Heartbeat CPU 0 instructions: 60000000 cycles: 26304187 heartbeat IPC: 1.14426 cumulative IPC: 1.14426 (Simulation time: 0 hr 3 min 6 sec) 
Heartbeat CPU 0 instructions: 70000002 cycles: 34673512 heartbeat IPC: 1.19484 cumulative IPC: 1.169 (Simulation time: 0 hr 3 min 33 sec) 
Heartbeat CPU 0 instructions: 80000003 cycles: 43486907 heartbeat IPC: 1.13464 cumulative IPC: 1.15732 (Simulation time: 0 hr 4 min 1 sec) 
Heartbeat CPU 0 instructions: 90000001 cycles: 51972708 heartbeat IPC: 1.17844 cumulative IPC: 1.16253 (Simulation time: 0 hr 4 min 28 sec) 
Heartbeat CPU 0 instructions: 100000003 cycles: 60768132 heartbeat IPC: 1.13696 cumulative IPC: 1.15732 (Simulation time: 0 hr 4 min 55 sec) 
Finished CPU 0 instructions: 50000002 cycles: 43203195 cumulative IPC: 1.15732 (Simulation time: 0 hr 4 min 55 sec) 

ChampSim completed all CPUs

Region of Interest Statistics

CPU 0 cumulative IPC: 1.15732 instructions: 50000002 cycles: 43203195
L1D TOTAL     ACCESS:   17974819  HIT:   17595332  MISS:     379487
L1D LOAD      ACCESS:    7206509  HIT:    7071396  MISS:     135113
L1D RFO       ACCESS:    3700738  HIT:    3596185  MISS:     104553
L1D PREFETCH  ACCESS:    7067572  HIT:    6927751  MISS:     139821
L1D WRITEBACK ACCESS:          0  HIT:          0  MISS:          0
L1D PREFETCH  REQUESTED:    7211947  ISSUED:    7129264  USEFUL:      45149  USELESS:      94678
L1D AVERAGE MISS LATENCY: 34.072 cycles
L1I TOTAL     ACCESS:   14933823  HIT:   13092165  MISS:    1841658
L1I LOAD      ACCESS:    8979837  HIT:    8946940  MISS:      32897
L1I RFO       ACCESS:          0  HIT:          0  MISS:          0
L1I PREFETCH  ACCESS:    5953986  HIT:    4145225  MISS:    1808761
L1I WRITEBACK ACCESS:          0  HIT:          0  MISS:          0
L1I PREFETCH  REQUESTED:    6286271  ISSUED:    6014136  USEFUL:     868453  USELESS:     940269
L1I AVERAGE MISS LATENCY: 15.2204 cycles
L2C TOTAL     ACCESS:    3179184  HIT:    3049850  MISS:     129334
L2C LOAD      ACCESS:     141329  HIT:     106184  MISS:      35145
L2C RFO       ACCESS:     104208  HIT:      69504  MISS:      34704
L2C PREFETCH  ACCESS:    2794357  HIT:    2734985  MISS:      59372
L2C WRITEBACK ACCESS:     139290  HIT:     139177  MISS:        113
L2C PREFETCH  REQUESTED:    1406861  ISSUED:    1406739  USEFUL:       5033  USELESS:      54692
L2C AVERAGE MISS LATENCY: 64.2867 cycles
LLC TOTAL     ACCESS:     283590  HIT:     248661  MISS:      34929
LLC LOAD      ACCESS:      35142  HIT:      27025  MISS:       8117
LLC RFO       ACCESS:      34704  HIT:      27972  MISS:       6732
LLC PREFETCH  ACCESS:     167914  HIT:     148070  MISS:      19844
LLC WRITEBACK ACCESS:      45830  HIT:      45594  MISS:        236
LLC PREFETCH  REQUESTED:          0  ISSUED:          0  USEFUL:       1281  USELESS:      17427
LLC AVERAGE MISS LATENCY: 179.899 cycles
Major fault: 0 Minor fault: 4160
CPU 0 L1D next line prefetcher final stats

DRAM Statistics
 CHANNEL 0
 RQ ROW_BUFFER_HIT:       4558  ROW_BUFFER_MISS:      30133
 DBUS_CONGESTED:      18500
 WQ ROW_BUFFER_HIT:       1483  ROW_BUFFER_MISS:      14494  FULL:          0

 AVG_CONGESTED_CYCLE: 4

CPU 0 Branch Prediction Accuracy: 94.7729% MPKI: 9.72684 Average ROB Occupancy at Mispredict: 54.4013

Branch types
NOT_BRANCH: 40695385 81.3908%
BRANCH_DIRECT_JUMP: 422107 0.844214%
BRANCH_INDIRECT: 65 0.00013%
BRANCH_CONDITIONAL: 8105006 16.21%
BRANCH_DIRECT_CALL: 374913 0.749826%
BRANCH_INDIRECT_CALL: 13657 0.027314%
BRANCH_RETURN: 388556 0.777112%
BRANCH_OTHER: 0 0%

